9
Properties=species:S:1:pos:R:3 pbc="F F F"
C       -1.31180026       0.00791080       0.03195078
C        0.17396933      -0.03116598       0.02107604
N        0.90716467      -0.90183274       0.64560492
O        2.17285288      -0.54960924       0.34537693
N        2.15838307       0.54406936      -0.46705619
N        0.96356106       0.86771307      -0.67129698
H       -1.66526625       0.95144201       0.45677812
H       -1.69759361      -0.06712209      -0.98825892
H       -1.70171442      -0.82112755       0.62509011
9
Properties=species:S:1:pos:R:3 pbc="F F F"
C       -1.00967193      -0.01563960      -0.06772391
C        0.48221283       0.03210362       0.01536189
N        1.29327945      -0.98149724       0.51611857
O        0.65689852      -1.95647327       0.89311617
N        1.77331791       1.96050934      -0.75690841
N        1.17325996       1.07305699      -0.40199538
H       -1.43366116       0.94306567      -0.37632102
H       -1.32729315      -0.78859958      -0.77451119
H       -1.41046117      -0.28714797       0.91265319
9
Properties=species:S:1:pos:R:3 pbc="F F F"
C       -1.16227464       0.03574439       0.01037207
C        0.28489124       0.00095810      -0.03141391
N        0.89518889      -0.94213330       0.83540512
O        1.76299576      -1.50686881       0.24140647
N        2.06194646       1.34164371      -0.61920607
N        0.99688677       0.93183531      -0.50445207
H       -1.58605113       1.01852710      -0.09588845
H       -1.63784291      -0.53952012      -0.76601438
H       -1.59053504      -0.34260700       0.92428799
